3
# CELL(abcABC):   10.58354    10.58354    10.58354    90.00000    90.00000    90.00000  PyEPFD-Step: 0 positions{angstrom} cell{angstrom}
O                  0                0        1.1571328
O                  0                0       -1.1571313
C                  0                0   -1.5875317e-06
3
# CELL(abcABC):   10.58354    10.58354    10.58354    90.00000    90.00000    90.00000  PyEPFD-Step: 1 positions{angstrom} cell{angstrom}
O     -2.1644539e-08   -1.3546308e-09        1.3098932
O     -1.0825663e-08   -8.5003505e-09       -1.0043709
C      -1.623509e-08    -4.927498e-09       0.15275873
3
# CELL(abcABC):   10.58354    10.58354    10.58354    90.00000    90.00000    90.00000  PyEPFD-Step: 2 positions{angstrom} cell{angstrom}
O      2.1644539e-08    1.3546308e-09        1.0043725
O      1.0825663e-08    8.5003505e-09       -1.3098916
C       1.623509e-08     4.927498e-09       -0.1527619
3
# CELL(abcABC):   10.58354    10.58354    10.58354    90.00000    90.00000    90.00000  PyEPFD-Step: 3 positions{angstrom} cell{angstrom}
O      1.5349446e-07       0.23739929        1.1571328
O     -6.6299837e-07      -0.09108796       -1.1571313
C     -2.5475279e-07      0.073155326   -1.5879651e-06
3
# CELL(abcABC):   10.58354    10.58354    10.58354    90.00000    90.00000    90.00000  PyEPFD-Step: 4 positions{angstrom} cell{angstrom}
O     -1.5349446e-07      -0.23739929        1.1571328
O      6.6299837e-07       0.09108796       -1.1571313
C      2.5475279e-07     -0.073155326   -1.5870984e-06
3
# CELL(abcABC):   10.58354    10.58354    10.58354    90.00000    90.00000    90.00000  PyEPFD-Step: 5 positions{angstrom} cell{angstrom}
O          0.1862744   -5.6314584e-07        1.1571328
O        -0.18790509    6.5617577e-08       -1.1571312
C     -0.00081572774   -2.4876349e-07   -1.5828014e-06
3
# CELL(abcABC):   10.58354    10.58354    10.58354    90.00000    90.00000    90.00000  PyEPFD-Step: 6 positions{angstrom} cell{angstrom}
O         -0.1862744    5.6314584e-07        1.1571328
O         0.18790509   -6.5617577e-08       -1.1571313
C      0.00081572774    2.4876349e-07   -1.5922621e-06
3
# CELL(abcABC):   10.58354    10.58354    10.58354    90.00000    90.00000    90.00000  PyEPFD-Step: 7 positions{angstrom} cell{angstrom}
O        -0.15367421     -3.37338e-07        1.1571328
O        -0.15184276    2.6639613e-07       -1.1571313
C        -0.15275848   -3.5470314e-08   -1.6037902e-06
3
# CELL(abcABC):   10.58354    10.58354    10.58354    90.00000    90.00000    90.00000  PyEPFD-Step: 8 positions{angstrom} cell{angstrom}
O         0.15367421      3.37338e-07        1.1571329
O         0.15184276   -2.6639613e-07       -1.1571312
C         0.15275848    3.5470314e-08   -1.5712733e-06
3
# CELL(abcABC):   10.58354    10.58354    10.58354    90.00000    90.00000    90.00000  PyEPFD-Step: 9 positions{angstrom} cell{angstrom}
O     -1.9778686e-07     -0.052928795        1.1571328
O      2.1686863e-08      -0.22031741       -1.1571313
C     -8.8049775e-08      -0.13662328    -1.593362e-06
3
# CELL(abcABC):   10.58354    10.58354    10.58354    90.00000    90.00000    90.00000  PyEPFD-Step: 10 positions{angstrom} cell{angstrom}
O      1.9778686e-07      0.052928795        1.1571328
O     -2.1686863e-08       0.22031741       -1.1571312
C      8.8049775e-08       0.13662328   -1.5817015e-06
3
# CELL(abcABC):   10.58354    10.58354    10.58354    90.00000    90.00000    90.00000  PyEPFD-Step: 11 positions{angstrom} cell{angstrom}
O        0.016641655     0.0054577579        1.1571328
O        0.016641724     0.0054577804       -1.1571312
C       -0.044336641      -0.01454054   -1.5961057e-06
3
# CELL(abcABC):   10.58354    10.58354    10.58354    90.00000    90.00000    90.00000  PyEPFD-Step: 12 positions{angstrom} cell{angstrom}
O       -0.016641655    -0.0054577579        1.1571329
O       -0.016641724    -0.0054577804       -1.1571313
C        0.044336641       0.01454054   -1.5789578e-06
3
# CELL(abcABC):   10.58354    10.58354    10.58354    90.00000    90.00000    90.00000  PyEPFD-Step: 13 positions{angstrom} cell{angstrom}
O       0.0054577478     -0.016641625        1.1571328
O       0.0054577703     -0.016641693       -1.1571312
C       -0.014540513      0.044336559   -1.5914266e-06
3
# CELL(abcABC):   10.58354    10.58354    10.58354    90.00000    90.00000    90.00000  PyEPFD-Step: 14 positions{angstrom} cell{angstrom}
O      -0.0054577478      0.016641625        1.1571328
O      -0.0054577703      0.016641693       -1.1571313
C        0.014540513     -0.044336559   -1.5836369e-06
3
# CELL(abcABC):   10.58354    10.58354    10.58354    90.00000    90.00000    90.00000  PyEPFD-Step: 15 positions{angstrom} cell{angstrom}
O      5.1422293e-09     1.285583e-09        1.1731096
O      5.1422505e-09    1.2855883e-09       -1.1731078
C      -1.369991e-08    -3.425046e-09   -1.9321051e-06
3
# CELL(abcABC):   10.58354    10.58354    10.58354    90.00000    90.00000    90.00000  PyEPFD-Step: 16 positions{angstrom} cell{angstrom}
O     -5.1422293e-09    -1.285583e-09         1.141156
O     -5.1422505e-09   -1.2855883e-09       -1.1411547
C       1.369991e-08     3.425046e-09   -1.2429584e-06
3
# CELL(abcABC):   10.58354    10.58354    10.58354    90.00000    90.00000    90.00000  PyEPFD-Step: 17 positions{angstrom} cell{angstrom}
O     -9.5921236e-10     1.054293e-10        1.1619138
O     -9.5921631e-10    1.0542974e-10         -1.15235
C      2.5555303e-09   -2.8088439e-10     -0.012739473
3
# CELL(abcABC):   10.58354    10.58354    10.58354    90.00000    90.00000    90.00000  PyEPFD-Step: 18 positions{angstrom} cell{angstrom}
O      9.5921236e-10    -1.054293e-10        1.1523518
O      9.5921631e-10   -1.0542974e-10       -1.1619125
C     -2.5555303e-09    2.8088439e-10      0.012736298
